<?xml version="1.0" encoding="UTF-8"?>

<!-- generated on Thu Dec 19 03:01:26 2019 by Netedit Version 0.32.0
<?xml version="1.0" encoding="UTF-8"?>

<configuration xmlns:xsi="http://www.w3.org/2001/XMLSchema-instance" xsi:noNamespaceSchemaLocation="http://sumo.dlr.de/xsd/netconvertConfiguration.xsd">

    <input>
        <sumo-net-file value="/Users/mac/src/Simulations/planememberswap/cfg/freeway.net.xml"/>
    </input>

    <output>
        <output-file value="/Users/mac/src/Simulations/planememberswap/cfg/freeway.net.xml"/>
    </output>

    <processing>
        <no-turnarounds value="true"/>
        <offset.disable-normalization value="true"/>
        <lefthand value="false"/>
        <junctions.corner-detail value="0"/>
        <rectangular-lane-cut value="false"/>
        <walkingareas value="false"/>
    </processing>

</configuration>
-->

<net version="0.27" xmlns:xsi="http://www.w3.org/2001/XMLSchema-instance" xsi:noNamespaceSchemaLocation="http://sumo.dlr.de/xsd/net_file.xsd">

    <location netOffset="0.00,0.00" convBoundary="0.00,-12000.00,12000.00,0.00" origBoundary="-10000000000.00,-10000000000.00,10000000000.00,10000000000.00" projParameter="!"/>

    <edge id=":0_0" function="internal">
        <lane id=":0_0_0" index="0" speed="65.00" length="2.58" shape="11.55,-13.15 11.65,-12.45 11.95,-11.95 12.45,-11.65 13.15,-11.55"/>
    </edge>
    <edge id=":0_1" function="internal">
        <lane id=":0_1_0" index="0" speed="65.00" length="7.90" shape="8.25,-13.15 8.56,-11.01 9.48,-9.47 11.01,-8.56 13.15,-8.25"/>
    </edge>
    <edge id=":0_2" function="internal">
        <lane id=":0_2_0" index="0" speed="65.00" length="13.22" shape="4.95,-13.15 5.46,-9.56 7.00,-7.00 9.56,-5.46 13.15,-4.95"/>
    </edge>
    <edge id=":0_3" function="internal">
        <lane id=":0_3_0" index="0" speed="65.00" length="18.55" shape="1.65,-13.15 2.37,-8.12 4.53,-4.53 8.12,-2.37 13.15,-1.65"/>
    </edge>
    <edge id=":1_0" function="internal">
        <lane id=":1_0_0" index="0" speed="62.50" length="16.97" shape="993.99,-22.34 998.85,-17.62 1002.63,-14.25 1005.33,-12.22 1006.95,-11.55"/>
    </edge>
    <edge id=":1_1" function="internal">
        <lane id=":1_1_0" index="0" speed="62.50" length="19.49" shape="991.66,-20.01 997.02,-14.86 1001.36,-11.19 1004.67,-8.98 1006.95,-8.25"/>
    </edge>
    <edge id=":1_2" function="internal">
        <lane id=":1_2_0" index="0" speed="62.50" length="22.03" shape="989.32,-17.68 995.20,-12.11 1000.09,-8.13 1004.01,-5.75 1006.95,-4.95"/>
    </edge>
    <edge id=":1_3" function="internal">
        <lane id=":1_3_0" index="0" speed="62.50" length="24.58" shape="986.99,-15.34 993.37,-9.35 998.83,-5.07 1003.35,-2.51 1006.95,-1.65"/>
    </edge>
    <edge id=":1_4" function="internal">
        <lane id=":1_4_0" index="0" speed="65.00" length="21.53" shape="985.42,-11.55 1006.95,-11.55"/>
        <lane id=":1_4_1" index="1" speed="65.00" length="21.53" shape="985.42,-8.25 1006.95,-8.25"/>
        <lane id=":1_4_2" index="2" speed="65.00" length="21.53" shape="985.42,-4.95 1006.95,-4.95"/>
        <lane id=":1_4_3" index="3" speed="65.00" length="21.53" shape="985.42,-1.65 1006.95,-1.65"/>
    </edge>
    <edge id=":10_0" function="internal">
        <lane id=":10_0_0" index="0" speed="65.00" length="2.58" shape="11988.45,-11986.85 11988.35,-11987.55 11988.05,-11988.05 11987.55,-11988.35 11986.85,-11988.45"/>
    </edge>
    <edge id=":10_1" function="internal">
        <lane id=":10_1_0" index="0" speed="65.00" length="7.90" shape="11991.75,-11986.85 11991.44,-11988.99 11990.52,-11990.52 11988.99,-11991.44 11986.85,-11991.75"/>
    </edge>
    <edge id=":10_2" function="internal">
        <lane id=":10_2_0" index="0" speed="65.00" length="13.22" shape="11995.05,-11986.85 11994.54,-11990.44 11993.00,-11993.00 11990.44,-11994.54 11986.85,-11995.05"/>
    </edge>
    <edge id=":10_3" function="internal">
        <lane id=":10_3_0" index="0" speed="65.00" length="18.55" shape="11998.35,-11986.85 11997.63,-11991.88 11995.48,-11995.48 11991.88,-11997.63 11986.85,-11998.35"/>
    </edge>
    <edge id=":11_0" function="internal">
        <lane id=":11_0_0" index="0" speed="62.50" length="16.97" shape="11006.01,-11977.66 11001.15,-11982.38 10997.37,-11985.75 10994.67,-11987.78 10993.05,-11988.45"/>
    </edge>
    <edge id=":11_1" function="internal">
        <lane id=":11_1_0" index="0" speed="62.50" length="19.49" shape="11008.34,-11979.99 11002.98,-11985.14 10998.64,-11988.81 10995.33,-11991.02 10993.05,-11991.75"/>
    </edge>
    <edge id=":11_2" function="internal">
        <lane id=":11_2_0" index="0" speed="62.50" length="22.03" shape="11010.68,-11982.32 11004.80,-11987.89 10999.91,-11991.87 10995.99,-11994.25 10993.05,-11995.05"/>
    </edge>
    <edge id=":11_3" function="internal">
        <lane id=":11_3_0" index="0" speed="62.50" length="24.58" shape="11013.01,-11984.66 11006.63,-11990.65 11001.17,-11994.93 10996.65,-11997.49 10993.05,-11998.35"/>
    </edge>
    <edge id=":11_4" function="internal">
        <lane id=":11_4_0" index="0" speed="65.00" length="21.53" shape="11014.58,-11988.45 10993.05,-11988.45"/>
        <lane id=":11_4_1" index="1" speed="65.00" length="21.53" shape="11014.58,-11991.75 10993.05,-11991.75"/>
        <lane id=":11_4_2" index="2" speed="65.00" length="21.53" shape="11014.58,-11995.05 10993.05,-11995.05"/>
        <lane id=":11_4_3" index="3" speed="65.00" length="21.53" shape="11014.58,-11998.35 10993.05,-11998.35"/>
    </edge>
    <edge id=":12_0" function="internal">
        <lane id=":12_0_0" index="0" speed="65.00" length="0.10" shape="10000.00,-11988.45 10000.00,-11988.45"/>
        <lane id=":12_0_1" index="1" speed="65.00" length="0.10" shape="10000.00,-11991.75 10000.00,-11991.75"/>
        <lane id=":12_0_2" index="2" speed="65.00" length="0.10" shape="10000.00,-11995.05 10000.00,-11995.05"/>
        <lane id=":12_0_3" index="3" speed="65.00" length="0.10" shape="10000.00,-11998.35 10000.00,-11998.35"/>
    </edge>
    <edge id=":13_0" function="internal">
        <lane id=":13_0_0" index="0" speed="65.00" length="0.10" shape="2000.00,-11988.45 2000.00,-11988.45"/>
        <lane id=":13_0_1" index="1" speed="65.00" length="0.10" shape="2000.00,-11991.75 2000.00,-11991.75"/>
        <lane id=":13_0_2" index="2" speed="65.00" length="0.10" shape="2000.00,-11995.05 2000.00,-11995.05"/>
        <lane id=":13_0_3" index="3" speed="65.00" length="0.10" shape="2000.00,-11998.35 2000.00,-11998.35"/>
    </edge>
    <edge id=":14_0" function="internal">
        <lane id=":14_0_0" index="0" speed="62.50" length="10.84" shape="997.61,-11988.45 994.66,-11988.01 992.90,-11986.75 991.43,-11984.82 989.32,-11982.32"/>
    </edge>
    <edge id=":14_1" function="internal">
        <lane id=":14_1_0" index="0" speed="62.50" length="11.79" shape="997.61,-11988.45 994.14,-11988.42 991.68,-11988.05 989.54,-11986.93 986.99,-11984.66"/>
    </edge>
    <edge id=":14_2" function="internal">
        <lane id=":14_2_0" index="0" speed="65.00" length="12.19" shape="997.61,-11988.45 985.42,-11988.45"/>
        <lane id=":14_2_1" index="1" speed="65.00" length="12.19" shape="997.61,-11991.75 985.42,-11991.75"/>
        <lane id=":14_2_2" index="2" speed="65.00" length="12.19" shape="997.61,-11995.05 985.42,-11995.05"/>
        <lane id=":14_2_3" index="3" speed="65.00" length="12.19" shape="997.61,-11998.35 985.42,-11998.35"/>
    </edge>
    <edge id=":15_0" function="internal">
        <lane id=":15_0_0" index="0" speed="65.00" length="2.58" shape="13.15,-11988.45 12.45,-11988.35 11.95,-11988.05 11.65,-11987.55 11.55,-11986.85"/>
    </edge>
    <edge id=":15_1" function="internal">
        <lane id=":15_1_0" index="0" speed="65.00" length="7.90" shape="13.15,-11991.75 11.01,-11991.44 9.48,-11990.52 8.56,-11988.99 8.25,-11986.85"/>
    </edge>
    <edge id=":15_2" function="internal">
        <lane id=":15_2_0" index="0" speed="65.00" length="13.22" shape="13.15,-11995.05 9.56,-11994.54 7.00,-11993.00 5.46,-11990.44 4.95,-11986.85"/>
    </edge>
    <edge id=":15_3" function="internal">
        <lane id=":15_3_0" index="0" speed="65.00" length="18.55" shape="13.15,-11998.35 8.12,-11997.63 4.53,-11995.48 2.37,-11991.88 1.65,-11986.85"/>
    </edge>
    <edge id=":16_0" function="internal">
        <lane id=":16_0_0" index="0" speed="62.50" length="16.97" shape="22.34,-11006.01 17.62,-11001.15 14.25,-10997.37 12.22,-10994.67 11.55,-10993.05"/>
    </edge>
    <edge id=":16_1" function="internal">
        <lane id=":16_1_0" index="0" speed="62.50" length="19.49" shape="20.01,-11008.34 14.86,-11002.98 11.19,-10998.64 8.98,-10995.33 8.25,-10993.05"/>
    </edge>
    <edge id=":16_2" function="internal">
        <lane id=":16_2_0" index="0" speed="62.50" length="22.03" shape="17.68,-11010.68 12.11,-11004.80 8.13,-10999.91 5.75,-10995.99 4.95,-10993.05"/>
    </edge>
    <edge id=":16_3" function="internal">
        <lane id=":16_3_0" index="0" speed="62.50" length="24.58" shape="15.34,-11013.01 9.35,-11006.63 5.07,-11001.17 2.51,-10996.65 1.65,-10993.05"/>
    </edge>
    <edge id=":16_4" function="internal">
        <lane id=":16_4_0" index="0" speed="65.00" length="21.53" shape="11.55,-11014.58 11.55,-10993.05"/>
        <lane id=":16_4_1" index="1" speed="65.00" length="21.53" shape="8.25,-11014.58 8.25,-10993.05"/>
        <lane id=":16_4_2" index="2" speed="65.00" length="21.53" shape="4.95,-11014.58 4.95,-10993.05"/>
        <lane id=":16_4_3" index="3" speed="65.00" length="21.53" shape="1.65,-11014.58 1.65,-10993.05"/>
    </edge>
    <edge id=":17_0" function="internal">
        <lane id=":17_0_0" index="0" speed="65.00" length="0.10" shape="11.55,-10000.00 11.55,-10000.00"/>
        <lane id=":17_0_1" index="1" speed="65.00" length="0.10" shape="8.25,-10000.00 8.25,-10000.00"/>
        <lane id=":17_0_2" index="2" speed="65.00" length="0.10" shape="4.95,-10000.00 4.95,-10000.00"/>
        <lane id=":17_0_3" index="3" speed="65.00" length="0.10" shape="1.65,-10000.00 1.65,-10000.00"/>
    </edge>
    <edge id=":18_0" function="internal">
        <lane id=":18_0_0" index="0" speed="65.00" length="0.10" shape="11.55,-2000.00 11.55,-2000.00"/>
        <lane id=":18_0_1" index="1" speed="65.00" length="0.10" shape="8.25,-2000.00 8.25,-2000.00"/>
        <lane id=":18_0_2" index="2" speed="65.00" length="0.10" shape="4.95,-2000.00 4.95,-2000.00"/>
        <lane id=":18_0_3" index="3" speed="65.00" length="0.10" shape="1.65,-2000.00 1.65,-2000.00"/>
    </edge>
    <edge id=":19_0" function="internal">
        <lane id=":19_0_0" index="0" speed="62.50" length="9.34" shape="11.55,-998.08 11.86,-995.48 12.79,-993.85 14.31,-992.48 16.39,-990.61"/>
    </edge>
    <edge id=":19_1" function="internal">
        <lane id=":19_1_0" index="0" speed="62.50" length="12.02" shape="11.55,-998.08 11.54,-994.52 11.83,-991.99 12.88,-989.78 15.16,-987.17"/>
    </edge>
    <edge id=":19_2" function="internal">
        <lane id=":19_2_0" index="0" speed="65.00" length="10.24" shape="11.55,-998.08 11.55,-987.44"/>
        <lane id=":19_2_1" index="1" speed="65.00" length="10.24" shape="8.25,-998.08 8.25,-987.71"/>
        <lane id=":19_2_2" index="2" speed="65.00" length="10.24" shape="4.95,-998.08 4.95,-987.98"/>
        <lane id=":19_2_3" index="3" speed="65.00" length="10.24" shape="1.65,-998.08 1.65,-988.25"/>
    </edge>
    <edge id=":2_0" function="internal">
        <lane id=":2_0_0" index="0" speed="65.00" length="0.10" shape="2000.00,-11.55 2000.00,-11.55"/>
        <lane id=":2_0_1" index="1" speed="65.00" length="0.10" shape="2000.00,-8.25 2000.00,-8.25"/>
        <lane id=":2_0_2" index="2" speed="65.00" length="0.10" shape="2000.00,-4.95 2000.00,-4.95"/>
        <lane id=":2_0_3" index="3" speed="65.00" length="0.10" shape="2000.00,-1.65 2000.00,-1.65"/>
    </edge>
    <edge id=":3_0" function="internal">
        <lane id=":3_0_0" index="0" speed="65.00" length="0.10" shape="10000.00,-11.55 10000.00,-11.55"/>
        <lane id=":3_0_1" index="1" speed="65.00" length="0.10" shape="10000.00,-8.25 10000.00,-8.25"/>
        <lane id=":3_0_2" index="2" speed="65.00" length="0.10" shape="10000.00,-4.95 10000.00,-4.95"/>
        <lane id=":3_0_3" index="3" speed="65.00" length="0.10" shape="10000.00,-1.65 10000.00,-1.65"/>
    </edge>
    <edge id=":4_0" function="internal">
        <lane id=":4_0_0" index="0" speed="70.00" length="10.43" shape="11002.39,-11.55 11003.72,-11.93 11005.54,-13.08 11007.86,-15.00 11010.68,-17.68"/>
    </edge>
    <edge id=":4_1" function="internal">
        <lane id=":4_1_0" index="0" speed="70.00" length="11.57" shape="11002.39,-11.55 11005.61,-11.79 11008.46,-12.50 11010.92,-13.68 11013.01,-15.34"/>
    </edge>
    <edge id=":4_2" function="internal">
        <lane id=":4_2_0" index="0" speed="65.00" length="12.19" shape="11002.39,-11.55 11014.58,-11.55"/>
        <lane id=":4_2_1" index="1" speed="65.00" length="12.19" shape="11002.39,-8.25 11014.58,-8.25"/>
        <lane id=":4_2_2" index="2" speed="65.00" length="12.19" shape="11002.39,-4.95 11014.58,-4.95"/>
        <lane id=":4_2_3" index="3" speed="65.00" length="12.19" shape="11002.39,-1.65 11014.58,-1.65"/>
    </edge>
    <edge id=":5_0" function="internal">
        <lane id=":5_0_0" index="0" speed="65.00" length="2.58" shape="11986.85,-11.55 11987.55,-11.65 11988.05,-11.95 11988.35,-12.45 11988.45,-13.15"/>
    </edge>
    <edge id=":5_1" function="internal">
        <lane id=":5_1_0" index="0" speed="65.00" length="7.90" shape="11986.85,-8.25 11988.99,-8.56 11990.52,-9.48 11991.44,-11.01 11991.75,-13.15"/>
    </edge>
    <edge id=":5_2" function="internal">
        <lane id=":5_2_0" index="0" speed="65.00" length="13.22" shape="11986.85,-4.95 11990.44,-5.46 11993.00,-7.00 11994.54,-9.56 11995.05,-13.15"/>
    </edge>
    <edge id=":5_3" function="internal">
        <lane id=":5_3_0" index="0" speed="65.00" length="18.55" shape="11986.85,-1.65 11991.88,-2.37 11995.48,-4.53 11997.63,-8.12 11998.35,-13.15"/>
    </edge>
    <edge id=":6_0" function="internal">
        <lane id=":6_0_0" index="0" speed="65.00" length="21.53" shape="11988.45,-985.42 11988.45,-1006.95"/>
        <lane id=":6_0_1" index="1" speed="65.00" length="21.53" shape="11991.75,-985.42 11991.75,-1006.95"/>
        <lane id=":6_0_2" index="2" speed="65.00" length="21.53" shape="11995.05,-985.42 11995.05,-1006.95"/>
        <lane id=":6_0_3" index="3" speed="65.00" length="21.53" shape="11998.35,-985.42 11998.35,-1006.95"/>
    </edge>
    <edge id=":6_4" function="internal">
        <lane id=":6_4_0" index="0" speed="62.50" length="17.79" shape="11977.66,-993.99 11981.86,-997.35 11985.29,-999.54 11987.60,-1002.20 11988.45,-1006.95"/>
    </edge>
    <edge id=":6_5" function="internal">
        <lane id=":6_5_0" index="0" speed="62.50" length="20.31" shape="11979.99,-991.66 11984.71,-995.57 11988.43,-998.24 11990.87,-1001.45 11991.75,-1006.95"/>
    </edge>
    <edge id=":6_6" function="internal">
        <lane id=":6_6_0" index="0" speed="62.50" length="22.85" shape="11982.32,-989.32 11987.55,-993.79 11991.57,-996.94 11994.14,-1000.69 11995.05,-1006.95"/>
    </edge>
    <edge id=":6_7" function="internal">
        <lane id=":6_7_0" index="0" speed="62.50" length="25.41" shape="11984.66,-986.99 11990.41,-992.02 11994.71,-995.64 11997.41,-999.93 11998.35,-1006.95"/>
    </edge>
    <edge id=":7_0" function="internal">
        <lane id=":7_0_0" index="0" speed="65.00" length="0.10" shape="11988.45,-2000.00 11988.45,-2000.00"/>
        <lane id=":7_0_1" index="1" speed="65.00" length="0.10" shape="11991.75,-2000.00 11991.75,-2000.00"/>
        <lane id=":7_0_2" index="2" speed="65.00" length="0.10" shape="11995.05,-2000.00 11995.05,-2000.00"/>
        <lane id=":7_0_3" index="3" speed="65.00" length="0.10" shape="11998.35,-2000.00 11998.35,-2000.00"/>
    </edge>
    <edge id=":8_0" function="internal">
        <lane id=":8_0_0" index="0" speed="65.00" length="0.10" shape="11988.45,-10000.00 11988.45,-10000.00"/>
        <lane id=":8_0_1" index="1" speed="65.00" length="0.10" shape="11991.75,-10000.00 11991.75,-10000.00"/>
        <lane id=":8_0_2" index="2" speed="65.00" length="0.10" shape="11995.05,-10000.00 11995.05,-10000.00"/>
        <lane id=":8_0_3" index="3" speed="65.00" length="0.10" shape="11998.35,-10000.00 11998.35,-10000.00"/>
    </edge>
    <edge id=":9_0" function="internal">
        <lane id=":9_0_0" index="0" speed="62.50" length="10.43" shape="11988.45,-11002.39 11988.07,-11003.72 11986.92,-11005.54 11985.00,-11007.86 11982.32,-11010.68"/>
    </edge>
    <edge id=":9_1" function="internal">
        <lane id=":9_1_0" index="0" speed="62.50" length="11.57" shape="11988.45,-11002.39 11988.21,-11005.61 11987.50,-11008.46 11986.32,-11010.92 11984.66,-11013.01"/>
    </edge>
    <edge id=":9_2" function="internal">
        <lane id=":9_2_0" index="0" speed="65.00" length="12.19" shape="11988.45,-11002.39 11988.45,-11014.58"/>
        <lane id=":9_2_1" index="1" speed="65.00" length="12.19" shape="11991.75,-11002.39 11991.75,-11014.58"/>
        <lane id=":9_2_2" index="2" speed="65.00" length="12.19" shape="11995.05,-11002.39 11995.05,-11014.58"/>
        <lane id=":9_2_3" index="3" speed="65.00" length="12.19" shape="11998.35,-11002.39 11998.35,-11014.58"/>
    </edge>
    <edge id=":e0_0" function="internal">
        <lane id=":e0_0_0" index="0" speed="75.00" length="1.22" shape="11394.58,-401.58 11395.05,-402.71"/>
    </edge>
    <edge id=":e0_1" function="internal">
        <lane id=":e0_1_0" index="0" speed="75.00" length="3.92" shape="11396.91,-399.25 11397.70,-400.09 11398.13,-400.77 11398.31,-401.57 11398.35,-402.71"/>
    </edge>
    <edge id=":e1_0" function="internal">
        <lane id=":e1_0_0" index="0" speed="60.00" length="1.26" shape="11598.42,-11394.58 11598.17,-11394.79 11597.90,-11394.93 11597.61,-11395.02 11597.29,-11395.05"/>
    </edge>
    <edge id=":e1_1" function="internal">
        <lane id=":e1_1_0" index="0" speed="60.00" length="3.85" shape="11600.75,-11396.91 11600.00,-11397.54 11599.17,-11397.99 11598.26,-11398.26 11597.29,-11398.35"/>
    </edge>
    <edge id=":e2_0" function="internal">
        <lane id=":e2_0_0" index="0" speed="60.00" length="1.26" shape="605.42,-11598.42 605.21,-11598.17 605.07,-11597.90 604.98,-11597.61 604.95,-11597.29"/>
    </edge>
    <edge id=":e2_1" function="internal">
        <lane id=":e2_1_0" index="0" speed="60.00" length="3.85" shape="603.09,-11600.75 602.46,-11600.00 602.01,-11599.17 601.74,-11598.26 601.65,-11597.29"/>
    </edge>
    <edge id=":e3_0" function="internal">
        <lane id=":e3_0_0" index="0" speed="60.00" length="1.25" shape="401.58,-605.42 401.83,-605.21 402.10,-605.07 402.39,-604.98 402.71,-604.95"/>
    </edge>
    <edge id=":e3_1" function="internal">
        <lane id=":e3_1_0" index="0" speed="60.00" length="3.84" shape="399.25,-603.08 400.00,-602.46 400.83,-602.01 401.73,-601.74 402.71,-601.65"/>
    </edge>
    <edge id=":s0_0" function="internal">
        <lane id=":s0_0_0" index="0" speed="60.00" length="13.67" shape="600.29,-411.55 602.69,-411.12 605.40,-409.81 608.42,-407.64 611.74,-404.59"/>
    </edge>
    <edge id=":s0_1" function="internal">
        <lane id=":s0_1_0" index="0" speed="60.00" length="11.31" shape="600.19,-408.25 601.98,-407.87 604.13,-406.73 606.63,-404.83 609.49,-402.18"/>
    </edge>
    <edge id=":s0_2" function="internal">
        <lane id=":s0_2_0" index="0" speed="60.00" length="8.96" shape="600.08,-404.95 601.27,-404.63 602.85,-403.65 604.84,-402.03 607.24,-399.76"/>
    </edge>
    <edge id=":s0_3" function="internal">
        <lane id=":s0_3_0" index="0" speed="60.00" length="6.63" shape="600.00,-401.65 601.10,-401.08 602.60,-399.77 604.05,-398.32 604.98,-397.35"/>
    </edge>
    <edge id=":s1_0" function="internal">
        <lane id=":s1_0_0" index="0" speed="60.00" length="9.20" shape="11588.45,-600.02 11588.54,-602.71 11588.97,-604.57 11589.98,-606.19 11591.82,-608.15"/>
    </edge>
    <edge id=":s1_1" function="internal">
        <lane id=":s1_1_0" index="0" speed="60.00" length="6.56" shape="11591.75,-600.02 11591.81,-601.94 11592.12,-603.26 11592.84,-604.42 11594.15,-605.82"/>
    </edge>
    <edge id=":s1_2" function="internal">
        <lane id=":s1_2_0" index="0" speed="60.00" length="3.92" shape="11595.05,-600.02 11595.09,-601.17 11595.27,-601.96 11595.70,-602.65 11596.49,-603.49"/>
    </edge>
    <edge id=":s1_3" function="internal">
        <lane id=":s1_3_0" index="0" speed="60.00" length="1.28" shape="11598.35,-600.02 11598.36,-600.39 11598.42,-600.65 11598.56,-600.88 11598.82,-601.15"/>
    </edge>
    <edge id=":s2_0" function="internal">
        <lane id=":s2_0_0" index="0" speed="60.00" length="9.03" shape="11399.98,-11588.45 11397.68,-11588.66 11395.56,-11589.29 11393.62,-11590.34 11391.85,-11591.82"/>
    </edge>
    <edge id=":s2_1" function="internal">
        <lane id=":s2_1_0" index="0" speed="60.00" length="6.44" shape="11399.98,-11591.75 11398.34,-11591.90 11396.83,-11592.35 11395.44,-11593.10 11394.18,-11594.15"/>
    </edge>
    <edge id=":s2_2" function="internal">
        <lane id=":s2_2_0" index="0" speed="60.00" length="3.85" shape="11399.98,-11595.05 11399.00,-11595.14 11398.10,-11595.41 11397.27,-11595.86 11396.51,-11596.49"/>
    </edge>
    <edge id=":s2_3" function="internal">
        <lane id=":s2_3_0" index="0" speed="60.00" length="1.26" shape="11399.98,-11598.35 11399.66,-11598.38 11399.37,-11598.47 11399.09,-11598.61 11398.85,-11598.82"/>
    </edge>
    <edge id=":s3_0" function="internal">
        <lane id=":s3_0_0" index="0" speed="60.00" length="9.03" shape="411.55,-11399.98 411.34,-11397.68 410.71,-11395.56 409.66,-11393.62 408.18,-11391.85"/>
    </edge>
    <edge id=":s3_1" function="internal">
        <lane id=":s3_1_0" index="0" speed="60.00" length="6.44" shape="408.25,-11399.98 408.10,-11398.34 407.65,-11396.83 406.90,-11395.44 405.85,-11394.18"/>
    </edge>
    <edge id=":s3_2" function="internal">
        <lane id=":s3_2_0" index="0" speed="60.00" length="3.85" shape="404.95,-11399.98 404.86,-11399.00 404.59,-11398.10 404.14,-11397.27 403.51,-11396.51"/>
    </edge>
    <edge id=":s3_3" function="internal">
        <lane id=":s3_3_0" index="0" speed="60.00" length="1.26" shape="401.65,-11399.98 401.62,-11399.66 401.53,-11399.37 401.39,-11399.09 401.18,-11398.85"/>
    </edge>

    <edge id="e0" from="4" to="e0" priority="1">
        <lane id="e0_0" index="0" speed="75.00" length="542.93" shape="11010.68,-17.68 11394.58,-401.58"/>
        <lane id="e0_1" index="1" speed="75.00" length="542.93" shape="11013.01,-15.34 11396.91,-399.25"/>
    </edge>
    <edge id="e1" from="9" to="e1" priority="1">
        <lane id="e1_0" index="0" speed="60.00" length="542.93" shape="11982.32,-11010.68 11598.42,-11394.58"/>
        <lane id="e1_1" index="1" speed="60.00" length="542.93" shape="11984.66,-11013.01 11600.75,-11396.91"/>
    </edge>
    <edge id="e2" from="14" to="e2" priority="1">
        <lane id="e2_0" index="0" speed="60.00" length="542.93" shape="989.32,-11982.32 605.42,-11598.42"/>
        <lane id="e2_1" index="1" speed="60.00" length="542.93" shape="986.99,-11984.66 603.09,-11600.75"/>
    </edge>
    <edge id="e3" from="19" to="e3" priority="1">
        <lane id="e3_0" index="0" speed="60.00" length="543.96" shape="16.39,-990.61 401.58,-605.42"/>
        <lane id="e3_1" index="1" speed="60.00" length="543.96" shape="15.16,-987.17 399.25,-603.08"/>
    </edge>
    <edge id="exit0" from="e0" to="exit0" priority="1">
        <lane id="exit0_0" index="0" speed="75.00" length="397.29" shape="11395.05,-402.71 11395.05,-800.00"/>
        <lane id="exit0_1" index="1" speed="75.00" length="397.29" shape="11398.35,-402.71 11398.35,-800.00"/>
    </edge>
    <edge id="exit1" from="e1" to="exit1" priority="1">
        <lane id="exit1_0" index="0" speed="60.00" length="397.29" shape="11597.29,-11395.05 11200.00,-11395.05"/>
        <lane id="exit1_1" index="1" speed="60.00" length="397.29" shape="11597.29,-11398.35 11200.00,-11398.35"/>
    </edge>
    <edge id="exit2" from="e2" to="exit2" priority="1">
        <lane id="exit2_0" index="0" speed="60.00" length="397.29" shape="604.95,-11597.29 604.95,-11200.00"/>
        <lane id="exit2_1" index="1" speed="60.00" length="397.29" shape="601.65,-11597.29 601.65,-11200.00"/>
    </edge>
    <edge id="exit3" from="e3" to="exit3" priority="1">
        <lane id="exit3_0" index="0" speed="60.00" length="397.29" shape="402.71,-604.95 800.00,-604.95"/>
        <lane id="exit3_1" index="1" speed="60.00" length="397.29" shape="402.71,-601.65 800.00,-601.65"/>
    </edge>
    <edge id="n1" from="1" to="2" priority="1">
        <lane id="n1_0" index="0" speed="65.00" length="993.05" shape="1006.95,-11.55 2000.00,-11.55"/>
        <lane id="n1_1" index="1" speed="65.00" length="993.05" shape="1006.95,-8.25 2000.00,-8.25"/>
        <lane id="n1_2" index="2" speed="65.00" length="993.05" shape="1006.95,-4.95 2000.00,-4.95"/>
        <lane id="n1_3" index="3" speed="65.00" length="993.05" shape="1006.95,-1.65 2000.00,-1.65"/>
    </edge>
    <edge id="n11" from="11" to="12" priority="1" length="993.05">
        <lane id="n11_0" index="0" speed="65.00" length="993.05" shape="10993.05,-11988.45 10000.00,-11988.45"/>
        <lane id="n11_1" index="1" speed="65.00" length="993.05" shape="10993.05,-11991.75 10000.00,-11991.75"/>
        <lane id="n11_2" index="2" speed="65.00" length="993.05" shape="10993.05,-11995.05 10000.00,-11995.05"/>
        <lane id="n11_3" index="3" speed="65.00" length="993.05" shape="10993.05,-11998.35 10000.00,-11998.35"/>
    </edge>
    <edge id="n13" from="13" to="14" priority="1">
        <lane id="n13_0" index="0" speed="65.00" length="1002.39" shape="2000.00,-11988.45 997.61,-11988.45"/>
        <lane id="n13_1" index="1" speed="65.00" length="1002.39" shape="2000.00,-11991.75 997.61,-11991.75"/>
        <lane id="n13_2" index="2" speed="65.00" length="1002.39" shape="2000.00,-11995.05 997.61,-11995.05"/>
        <lane id="n13_3" index="3" speed="65.00" length="1002.39" shape="2000.00,-11998.35 997.61,-11998.35"/>
    </edge>
    <edge id="n16" from="16" to="17" priority="1">
        <lane id="n16_0" index="0" speed="65.00" length="993.05" shape="11.55,-10993.05 11.55,-10000.00"/>
        <lane id="n16_1" index="1" speed="65.00" length="993.05" shape="8.25,-10993.05 8.25,-10000.00"/>
        <lane id="n16_2" index="2" speed="65.00" length="993.05" shape="4.95,-10993.05 4.95,-10000.00"/>
        <lane id="n16_3" index="3" speed="65.00" length="993.05" shape="1.65,-10993.05 1.65,-10000.00"/>
    </edge>
    <edge id="n18" from="18" to="19" priority="1">
        <lane id="n18_0" index="0" speed="65.00" length="1001.92" shape="11.55,-2000.00 11.55,-998.08"/>
        <lane id="n18_1" index="1" speed="65.00" length="1001.92" shape="8.25,-2000.00 8.25,-998.08"/>
        <lane id="n18_2" index="2" speed="65.00" length="1001.92" shape="4.95,-2000.00 4.95,-998.08"/>
        <lane id="n18_3" index="3" speed="65.00" length="1001.92" shape="1.65,-2000.00 1.65,-998.08"/>
    </edge>
    <edge id="n3" from="3" to="4" priority="1" length="1002.39">
        <lane id="n3_0" index="0" speed="65.00" length="1002.39" shape="10000.00,-11.55 11002.39,-11.55"/>
        <lane id="n3_1" index="1" speed="65.00" length="1002.39" shape="10000.00,-8.25 11002.39,-8.25"/>
        <lane id="n3_2" index="2" speed="65.00" length="1002.39" shape="10000.00,-4.95 11002.39,-4.95"/>
        <lane id="n3_3" index="3" speed="65.00" length="1002.39" shape="10000.00,-1.65 11002.39,-1.65"/>
    </edge>
    <edge id="n6" from="6" to="7" priority="1">
        <lane id="n6_0" index="0" speed="65.00" length="993.05" shape="11988.45,-1006.95 11988.45,-2000.00"/>
        <lane id="n6_1" index="1" speed="65.00" length="993.05" shape="11991.75,-1006.95 11991.75,-2000.00"/>
        <lane id="n6_2" index="2" speed="65.00" length="993.05" shape="11995.05,-1006.95 11995.05,-2000.00"/>
        <lane id="n6_3" index="3" speed="65.00" length="993.05" shape="11998.35,-1006.95 11998.35,-2000.00"/>
    </edge>
    <edge id="n8" from="8" to="9" priority="1" length="1002.39">
        <lane id="n8_0" index="0" speed="65.00" length="1002.39" shape="11988.45,-10000.00 11988.45,-11002.39"/>
        <lane id="n8_1" index="1" speed="65.00" length="1002.39" shape="11991.75,-10000.00 11991.75,-11002.39"/>
        <lane id="n8_2" index="2" speed="65.00" length="1002.39" shape="11995.05,-10000.00 11995.05,-11002.39"/>
        <lane id="n8_3" index="3" speed="65.00" length="1002.39" shape="11998.35,-10000.00 11998.35,-11002.39"/>
    </edge>
    <edge id="p0" from="0" to="1" priority="1">
        <lane id="p0_0" index="0" speed="65.00" length="972.27" shape="13.15,-11.55 985.42,-11.55"/>
        <lane id="p0_1" index="1" speed="65.00" length="972.27" shape="13.15,-8.25 985.42,-8.25"/>
        <lane id="p0_2" index="2" speed="65.00" length="972.27" shape="13.15,-4.95 985.42,-4.95"/>
        <lane id="p0_3" index="3" speed="65.00" length="972.27" shape="13.15,-1.65 985.42,-1.65"/>
    </edge>
    <edge id="p10" from="10" to="11" priority="1">
        <lane id="p10_0" index="0" speed="65.00" length="972.27" shape="11986.85,-11988.45 11014.58,-11988.45"/>
        <lane id="p10_1" index="1" speed="65.00" length="972.27" shape="11986.85,-11991.75 11014.58,-11991.75"/>
        <lane id="p10_2" index="2" speed="65.00" length="972.27" shape="11986.85,-11995.05 11014.58,-11995.05"/>
        <lane id="p10_3" index="3" speed="65.00" length="972.27" shape="11986.85,-11998.35 11014.58,-11998.35"/>
    </edge>
    <edge id="p12" from="12" to="13" priority="1" length="10000.00">
        <lane id="p12_0" index="0" speed="65.00" length="10000.00" shape="10000.00,-11988.45 2000.00,-11988.45"/>
        <lane id="p12_1" index="1" speed="65.00" length="10000.00" shape="10000.00,-11991.75 2000.00,-11991.75"/>